@<TRIPOS>MOLECULE
LIG
   27    28     1     0     0
SMALL
bcc


@<TRIPOS>ATOM
      1 N1           7.3300    -0.6620    20.9310 ns       404 LIG      -0.458100
      2 C4          12.9690     0.5330    23.6470 ca       404 LIG      -0.148000
      3 C5          11.8110     0.8480    24.3440 ca       404 LIG      -0.108500
      4 C6          10.6050     0.3380    23.9310 ca       404 LIG      -0.154500
      5 C7           6.6490     0.0270    19.8680 ca       404 LIG      -0.055700
      6 C8           5.4450     0.6520    20.1520 ca       404 LIG      -0.147000
      7 C10          5.4060     1.2810    17.8510 ca       404 LIG       0.372200
      8 N            9.2790    -0.9690    22.4270 ns       404 LIG      -0.459100
      9 C            8.6390    -0.2390    21.3600 c        404 LIG       0.767100
     10 O            9.1920     0.6790    20.8500 o        404 LIG      -0.603100
     11 C1          10.5660    -0.4930    22.8300 ca       404 LIG       0.055600
     12 C11          7.1890     0.0560    18.5940 ca       404 LIG       0.395200
     13 C2          11.7090    -0.8080    22.1210 ca       404 LIG      -0.154500
     14 C3          12.9220    -0.2980    22.5410 ca       404 LIG      -0.108500
     15 C9           4.8150     1.3120    19.1090 ca       404 LIG      -0.223300
     16 N2           6.5550     0.6850    17.6400 nb       404 LIG      -0.646000
     17 H1           7.4720    -1.5860    20.5760 hn       404 LIG       0.307500
     18 H4          13.9070     0.9360    23.9680 ha       404 LIG       0.134000
     19 H5          11.8580     1.4870    25.2010 ha       404 LIG       0.135000
     20 H6           9.7060     0.5820    24.4570 ha       404 LIG       0.148500
     21 H8           5.0200     0.6260    21.1340 ha       404 LIG       0.134000
     22 H10          4.9090     1.7570    17.0320 h4       404 LIG       0.024100
     23 H            9.4380    -1.8860    22.0620 hn       404 LIG       0.306500
     24 H11          8.1190    -0.4330    18.3920 h4       404 LIG       0.060100
     25 H2          11.6550    -1.4390    21.2580 ha       404 LIG       0.148500
     26 H3          13.8200    -0.5440    22.0140 ha       404 LIG       0.135000
     27 H9           3.8940     1.8340    19.2680 ha       404 LIG       0.143000
@<TRIPOS>BOND
     1     1     5 1   
     2     1     9 1   
     3     1    17 1   
     4     2     3 ar  
     5     2    14 ar  
     6     2    18 1   
     7     3     4 ar  
     8     3    19 1   
     9     4    11 ar  
    10     4    20 1   
    11     5     6 ar  
    12     5    12 ar  
    13     6    15 ar  
    14     6    21 1   
    15     7    15 ar  
    16     7    16 ar  
    17     7    22 1   
    18     8     9 1   
    19     8    11 1   
    20     8    23 1   
    21     9    10 2   
    22    11    13 ar  
    23    12    16 ar  
    24    12    24 1   
    25    13    14 ar  
    26    13    25 1   
    27    14    26 1   
    28    15    27 1   
@<TRIPOS>SUBSTRUCTURE
     1 LIG         1 TEMP              0 ****  ****    0 ROOT
